ELEMENTS
O H C N He Cu Ce
END
SPECIES
CO CO2 O2 H2 H2O He
END
