ELEMENTS
O H C N He Pt Rh
END
SPECIES
CO O2 CO2 H2 H2O NO N2O NO2 N2 He
END
